**$ENCRYPTED_LIB
**$INTERFACE
* PSpice Model Editor - Version 16.2.0
*$
* TPS73601
*****************************************************************************
* (C) Copyright 2014 Texas Instruments Incorporated. All rights reserved.
*****************************************************************************
** This model is designed as an aid for customers of Texas Instruments.
** TI and its licensors and suppliers make no warranties, either expressed
** or implied, with respect to this model, including the warranties of
** merchantability or fitness for a particular purpose. The model is
** provided solely on an "as is" basis. The entire risk as to its quality
** and performance is with the customer
*****************************************************************************
*
** Released by: WEBENCH Design Center, Texas Instruments Inc.
* Part: TPS73601
* Date: 20DEC2014
* Model Type: Transient
* Simulator: PSPICE
* Simulator Version: 16.2.0.p001
* EVM Order Number: 
* EVM Users Guide: SBVU014-August 2009
* Datasheet: SBVS038T-SEPTEMBER 2003-REVISED AUGUST 2010
*
* Model Version: Final 1.00
*
*****************************************************************************
*
* Updates:
*
* Final 1.00
* Release to Web
*
*****************************************************************************
* source TPS73601

.SUBCKT TPS73601_TRANS EN IN NR_FB OUT GND
$CDNENCSTART
eee8c5c7a2bc4b01f045f303678664e7916da0bae22e8cb0bba041dd67c69ce448ea70148a9ac1670c8926c1ac5057c8ccfcd77bf87ca9dcb6c53803b553c573
69ff18044fae7c89706b807646b80371d529386f2254ef4214ccad1cde3daa192f146b584808f989a9c096ac83c8821c4603fe882b6b113e4458a6e0224abc7a
e9f419af62bfe95ebc27f931268b4061a129ca69b9181824b43782fd7d4e65be867ccbe48978b78c24857c0c73a19fcd67ced613d666dcae8f03faff22254705
5d078000650a8fa5c523c4663fe207021e4bb195294e334c507308e3e83079891e14dc7169469d87ca50dd2f84f685494556b524933c52d2191e2001008fd498
a3ce589fda26bc39706b807646b8037190aabbc64dbaa53444a1ca795b8279eb42910d80ec58245623b782b3d6a37df10d6515d4188937861ce34e0a15478355
e9f419af62bfe95ecc0121b5e20e2076a129ca69b9181824029d38b158f2850678b54ce720b1001ebd0fdbcb9eed5494c9bd453863eb7642e6d2cfaa7f084b7f
0a74212461f65cb92e1bbe5dba9805b5cb82e1066e82af78bf1ee911780421dd4f613872218ba4363c1f619ce9852864a08fec16a40a90a32f404af6f269ff71
bc8ee2299b22080304dad6d08f858f3290d894e251243331dc0745283a910a9d0837a69cda7d573ded53384b3b259c9681085fd54773d1f6ba56315bf3a91097
0be1bd08545f4ec3706b807646b80371acd4e4d60e15418feeca062ffe77a6591e14dc7169469d87ca50dd2f84f685494556b524933c52d2191e2001008fd498
b67df0d3ab862a12706b807646b80371a847f3fb487c186cf6921816417d9cc35699b53886fa29b6a46ebc4d8d846ca9c3e0627bfe5f4706125e3d60667dca61
1ac3d64a7ec42565706b807646b803712cbe4cb847b321db70358c927c22e21d028b0dfd113524f5dd6d845ce7efd0f296cc4b5209c35bf7d2c0ea702584563a
e776e9b255bda08cbfd81d659a09e4b32c4b5f36edab5d85e3c10054dbadb5a63f130879f517c8091f157ff61749526df6b7d1886356ed0a291f3b9e2bab1633
8767f397bff4c3a731bbfa71d5efb6fe825b843a3aa9ddcda46ebc4d8d846ca9c3e0627bfe5f47060d07b7a607c2efb4f2b6146320d734ba16d4d26a32461693
cc09709c562a8286706b807646b803714c3effd459b328ef3c6ca1d3f24618ff5ec8f4c435718282a9c096ac83c8821c4603fe882b6b113e4458a6e0224abc7a
1e36f10390632b7b706b807646b80371a37c8d9f660ce8e6b8215d4f94dcf48c493d1542e1cde6237863ff2f29c1a45c04f5da97d64827576ab1e15a702589d4
042f0c0c78bb0deb0837a69cda7d573ded53384b3b259c9681085fd54773d1f62672d6ba79197f0b9a34a16e698c2fe8c11193bfb3dd78630e366f15004c3cd2
6dcfb6d5e8929f04706b807646b8037110fe20894a82e47899b87aceb23e86970c7e012bffe34f9d2fd4a791317eac011e14dc7169469d875b0c7bdaac66d76f
311fb123761f1dd1d98f06373a0458504f613872218ba4363c1f619ce9852864a08fec16a40a90a3a268173e41f7df8d2a1d9e2a06447e8a628aeb0bfd34a457
373e6d9fea86223ba0cd3248b5d95dabb1c78e81cd8905d94426db1685e349a4e22def9e5752c820adc4e0c42c53b697017b3eaa3b80d5120514e1bdd931168e
a028d72e63aa0732b492f2a912effe5d545922b53e3e649fa46ebc4d8d846ca9c3e0627bfe5f47060d07b7a607c2efb4f2b6146320d734ba16d4d26a32461693
8f651286791d38a4a46ebc4d8d846ca9c3e0627bfe5f47060d07b7a607c2efb4f2b6146320d734ba9000d2e7bbb736390c41e988016df311a50a5130f22cbe16
22cc75479b3d980a706b807646b80371f33f0d01240d7e835969c30de9b984f76524d5acad086a65d107d5c830e3ea37644126c9831a96bd632dbb34b4d3a013
e9f419af62bfe95ec12e63f53fc8b6c7a129ca69b9181824a659091cef83c41e6b574213c15e8d89cedf311ed8ed009900dfc5e4ec9ac7378c5ea5f76ed57b96
7eaa6a336f9158db1d0859ed60667799644126c9831a96bd747ae1161dfc03a17873f95f7371eb58419598a3f092eb44611f35d652a0de503cd4f1005de92b05
470dd7f55c073fcd55136b92d0559ec4e71f71e187584171747ae1161dfc03a17873f95f7371eb58419598a3f092eb44611f35d652a0de503cd4f1005de92b05
a78fdcc1e2fc2ea7706b807646b803714c3effd459b328ef2c46dc6b5d54060abf2ceb628a2e05fea9c096ac83c8821c4603fe882b6b113e4458a6e0224abc7a
82d2e7992b7a58af706b807646b80371be25824eded14ba7ffe80e678c975a0331c68e8203ec0ea32ee75a6bf0208737ef5cbbfa00a654328d8b49391785fc3b
60a188d940e604c16594e2ecfdcb7f141e14dc7169469d87ca50dd2f84f685494556b524933c52d234d61523b4119cbfc0aedbca028f7cf94b4dd02f5f246e52
bbf0a766f49a242c2637e9cac2aa5cea2cecad1ebf804c4bf467148f06ca8e434f613872218ba4363c1f619ce9852864a08fec16a40a90a32f404af6f269ff71
54653036f112a7e5706b807646b803716f4dbe31c2aca5f12d6e8fd62f4583264e005cf928f58fcbef1d7357d3c4e2f3644126c9831a96bd632dbb34b4d3a013
6dcc2999c2dfe559706b807646b80371036666495c42b896210e5b02360289f15ec8f4c435718282a9c096ac83c8821c4603fe882b6b113e4458a6e0224abc7a
a5d158a0fc11634f706b807646b80371f33f0d01240d7e83e3bd2a0146318df6bf1ee911780421dd4f613872218ba4363c1f619ce9852864e9e473ba9c5e43b3
f28257b2a3730294706b807646b80371a847f3fb487c186c97c44003f5b6ec9c5699b53886fa29b6a46ebc4d8d846ca9c3e0627bfe5f4706125e3d60667dca61
93d3808648446fd760c210771409cb2ed343a2bb7c71b27a4d19d9bad7b869642c4b5f36edab5d85e3c10054dbadb5a63f130879f517c809d777633c3432adb3
b0eb42ca922cce592fbfcc2b872ff946a30c69f2ad0860c8ce5ec34e6f8ad1ca4a00a148cfaed34189a2a12c79e79f3563304b2fd86ece55c0bcdf6980feb0e3
37080f586b2fbb9fe73070a45f1d549ca9c096ac83c8821c4603fe882b6b113e9445dff69f0fd91970a5df11eb6a62dfaac9a388869992d77d453769acaecd43
e0bee0f3fadd672460c210771409cb2ed343a2bb7c71b27a51785ede25309db7ed235a8161a29aaf45f9e6cb5a4b6f160d6515d4188937861ce34e0a15478355
c9df73872fc60450fa79e9e8bd996a3411200b32d046c08d19926a1faa73f86e192f474d89bed358303d7240d8c3139d4f613872218ba4362a4527ddd6fa1def
705d459f50f7a08caf1922b60cad7ad54cb34a6f6f4f982a83463dd640f012e500d3e0b087c73744a46ebc4d8d846ca9c3e0627bfe5f4706125e3d60667dca61
3174e2896c57547e706b807646b80371d01686e2c07a5e495170a8e3336487152c4b5f36edab5d85e3c10054dbadb5a63f130879f517c809d777633c3432adb3
b90e0c5fe970b38760c210771409cb2ebf466699b24c7431f24bf58ddadd36c74b84da9a526f50928996186a7016e01159423a129c2540f0970502f06de31893
b052355e65d40bdac83805c2174809e8046b68a8103de4a05196a5e1206341b6a8328c5ceb7e512e0837a69cda7d573ded53384b3b259c960d8068a4a0cd2632
04f5acd939422ec097705d9322a214a7dbeda22f19a2de8ffb817bc487f1b3c873eede5641cbefe6af399d32d282acb60837a69cda7d573d98b83dc775d7bea9
717cdf892ff6b6ffd811871cc3622e4a53e7b7d7fd04c6592c4b5f36edab5d85e3c10054dbadb5a63f130879f517c8091f157ff61749526d5d81e4f25eeb4ed0
615a28c46d72374094fbbbfac28a5c5c164c9e232793a5b0e99f6ae89c8b7ae30d6515d418893786757f24752a0a534ee11c5a20f6b6f3e9a9ab43a48089c563
9afa1f10a7f457eaf99c9c61d88405a1d4234e857c4f5e5caed41d0d06901c485453634dcbb7e97a1e14dc7169469d87ca50dd2f84f68549a898576358f968ca
2cfd781695004e385547194e5b89736796132576d96a1b79e4fe92e543dc6b5aa43f6f4d1fa72d71a161a8aa060187e27187c168cef46f11efd38237f783b9b0
8b0d172e5a875d3a0a0603cf79d318449aacae35e521587a747ae1161dfc03a17873f95f7371eb58419598a3f092eb44611f35d652a0de503cd4f1005de92b05
62de40c9486cbee43ff860f2aec08b60dfd826b22c4a27dd309d0d23220388682a436dbc7a6b821bf83ec95d77743e1c95cb653371f0651cd38aff4e12555a5d
$CDNENCFINISH
.ENDS TPS73601_TRANS
*$
.subckt TPS73601_F1 1 2 3 4  
$CDNENCSTART
eee8c5c7a2bc4b01f045f303678664e7916da0bae22e8cb0bba041dd67c69ce448ea70148a9ac1670c8926c1ac5057c8ccfcd77bf87ca9dcb6c53803b553c573
ae601cf82fbefc0c31820e631d1d1d74872d6da6e74e75ee2c4b5f36edab5d85e3c10054dbadb5a63f130879f517c8091f157ff61749526d5d81e4f25eeb4ed0
969b68e4450fa8bd6f31076d2b37e96b3a7bc5327c69eeafa46ebc4d8d846ca9c3e0627bfe5f47060d07b7a607c2efb4f2b6146320d734ba16d4d26a32461693
$CDNENCFINISH
.ends TPS73601_F1
*$
.subckt TPS73601_S2 1 2 3 4  
$CDNENCSTART
eee8c5c7a2bc4b01f045f303678664e7916da0bae22e8cb0bba041dd67c69ce448ea70148a9ac1670c8926c1ac5057c8ccfcd77bf87ca9dcb6c53803b553c573
c21144fd15b2c61331820e631d1d1d7423f284e2e346bfb82c4b5f36edab5d85e3c10054dbadb5a63f130879f517c8091f157ff61749526d5d81e4f25eeb4ed0
e07b7a6acd4bf43c6f31076d2b37e96baa35006d782c6ce9a46ebc4d8d846ca9c3e0627bfe5f47060d07b7a607c2efb4f2b6146320d734ba16d4d26a32461693
1e7e75f62a07f7b1bbcb463bf6330e44eff574bcdcb677aa0ffb76e2ddf4497b5f6003074c56b82c4581845dadf41c9ebedd4f0e0429e49f7c4bbf5b95fbb5a2
$CDNENCFINISH
.ends TPS73601_S2
*$
.SUBCKT SRLATCHRHP_BASIC_GEN S R Q QB PARAMS: VDD=1 VSS=0 VTHRESH=0.5 
$CDNENCSTART
eee8c5c7a2bc4b01f045f303678664e7916da0bae22e8cb0bba041dd67c69ce448ea70148a9ac1670c8926c1ac5057c8ccfcd77bf87ca9dcb6c53803b553c573
08e147163f37b483eb1553db51121b0af03ffeaf6f4cc2495403a992dada814087dbbe4c721b28118ac3abcaf6d8f63e75c06ff6952a82ffe54dea19fa791efd
e634d4e8e9534d110837a69cda7d573ded53384b3b259c9681085fd54773d1f62672d6ba79197f0b9a34a16e698c2fe8c11193bfb3dd78630e366f15004c3cd2
a405048fcac30c1a338602ff93fff92d1e14dc7169469d87ca50dd2f84f685494556b524933c52d234d61523b4119cbfc0aedbca028f7cf94b4dd02f5f246e52
b75a50bb44e3b503f2667b5cb330c5cf12000876fc7937f7a46ebc4d8d846ca9c3e0627bfe5f47060d07b7a607c2efb4f2b6146320d734ba16d4d26a32461693
1033be605ac86fd802147ff4d5c4cb2f895d090a759f8331a9c096ac83c8821c4603fe882b6b113e9445dff69f0fd91970a5df11eb6a62df2e8ce3cf720cfa94
4d7ee7dde33e9387429f112cf66a5e580d6515d418893786757f24752a0a534ee11c5a20f6b6f3e9b55f97a0b0c9984041d9ca01ee5d2eec2ed31b0784434845
df95d7fdcea3a2180d504e4cc1a75a0966d837958b36832c0837a69cda7d573ded53384b3b259c9681085fd54773d1f62672d6ba79197f0ba9240efac1957a80
193c989aae9fedb66f74756715268570644126c9831a96bd747ae1161dfc03a17873f95f7371eb58419598a3f092eb44611f35d652a0de503cd4f1005de92b05
99fafaa2580fb990086c1f20d6d180eb36806a8e381bf9a0747ae1161dfc03a17873f95f7371eb58419598a3f092eb44611f35d652a0de503cd4f1005de92b05
b8c0b98b8ee14d0e86fb6fea0644b392d2bbd7e847d638e1e776e9b255bda08c858b231094abeea61f9a9c561ad56bf1e3c1957d735cf1403eb0abf7d3e723a6
5c58db27c3805ea574a3eb324cd6e4384f613872218ba4363c1f619ce9852864a08fec16a40a90a3a268173e41f7df8d2a1d9e2a06447e8a628aeb0bfd34a457
7e2980978c86958c3c22444f975fafc20837a69cda7d573ded53384b3b259c9681085fd54773d1f62672d6ba79197f0b9a34a16e698c2fe872fff3878af0d013
161224ee3eeadb9c8492e52ca99071370aa8feaa9dcff1516e87bca1c6f42fe3e8a5dce5e40df7ad937cd11398766dd3d9d026f8fea4d305e6d2cfaa7f084b7f
04db544825bf7de1adbce7254a8ccba40837a69cda7d573ded53384b3b259c9681085fd54773d1f62672d6ba79197f0b9a34a16e698c2fe872fff3878af0d013
97c9333151ea8fa7b47141f0f87379b01e14dc7169469d87ca50dd2f84f685494556b524933c52d234d61523b4119cbfc0aedbca028f7cf94b4dd02f5f246e52
8f7b8724f31a9e8c9bb209fe8097ada21e14dc7169469d87ca50dd2f84f685494556b524933c52d234d61523b4119cbfc0aedbca028f7cf94b4dd02f5f246e52
cb3de6a18d5d6014b511a41d3b9c21e6e71f71e187584171747ae1161dfc03a17873f95f7371eb58419598a3f092eb44611f35d652a0de503cd4f1005de92b05
$CDNENCFINISH
.ENDS SRLATCHRHP_BASIC_GEN
*$
.SUBCKT COMP_BASIC_GEN INP INM Y PARAMS: VDD=1 VSS=0 VTHRESH=0.5	
$CDNENCSTART
eee8c5c7a2bc4b01f045f303678664e7916da0bae22e8cb0bba041dd67c69ce448ea70148a9ac1670c8926c1ac5057c8ccfcd77bf87ca9dcb6c53803b553c573
324d0b28bd3976fec3fa3d1e401a4503c7cd3c6de157579e2a235350161d1bcb644126c9831a96bd747ae1161dfc03a17873f95f7371eb58ef6c64c214b6b18b
31a245cc4f39b9f1af5040d5c61521d091d34273a8fcd1de1e14dc7169469d87ca50dd2f84f685494556b524933c52d234d61523b4119cbffdbceb0b489cfa4e
3b7f5ebe940d64624170694978eb4cf8a9c096ac83c8821c4603fe882b6b113e9445dff69f0fd91970a5df11eb6a62dfaac9a388869992d77d453769acaecd43
b076ff8d9576189163285b2908224391747ae1161dfc03a17873f95f7371eb58419598a3f092eb44611f35d652a0de505bfaeae282c02badfee7ae76fd4230cf
$CDNENCFINISH
.ENDS COMP_BASIC_GEN
*$
.SUBCKT COMPHYS_BASIC_GEN INP INM HYS OUT PARAMS: VDD=1 VSS=0 VTHRESH=0.5	
$CDNENCSTART
eee8c5c7a2bc4b01f045f303678664e7916da0bae22e8cb0bba041dd67c69ce448ea70148a9ac1670c8926c1ac5057c8ccfcd77bf87ca9dcb6c53803b553c573
9132b7121104d4358be44c41ab888f41b6e3a1568843d8672c4b5f36edab5d85e3c10054dbadb5a63f130879f517c8091f157ff61749526d5d81e4f25eeb4ed0
70d49a25931fcad5af5f0f227a33dfc56b574213c15e8d8904d73209bd6cb354e07469d76c73f504727902e71a3e75d8bb77e20fe987edd8d38aff4e12555a5d
d1579de13894cc53749d13634498f34b2814ec203481f38f6485690991963efc688dc2cfc32ec3a9609956094a2f05290f82827fc36822f02ba2c1c1728c017b
c985c90e830fff9457e2c5aa808513704f613872218ba4363c1f619ce9852864a08fec16a40a90a3a268173e41f7df8d2a1d9e2a06447e8a628aeb0bfd34a457
1fdb31c906bbcd7763285b2908224391747ae1161dfc03a17873f95f7371eb58419598a3f092eb44611f35d652a0de505bfaeae282c02badfee7ae76fd4230cf
13142c038a62aa150aa66cfdd7abddd71e14dc7169469d87ca50dd2f84f685494556b524933c52d234d61523b4119cbfc0aedbca028f7cf94b4dd02f5f246e52
$CDNENCFINISH
.ENDS COMPHYS_BASIC_GEN
*$
.SUBCKT D_D1 1 2
$CDNENCSTART
eee8c5c7a2bc4b01f045f303678664e7916da0bae22e8cb0bba041dd67c69ce448ea70148a9ac1670c8926c1ac5057c8ccfcd77bf87ca9dcb6c53803b553c573
b3390a098a7d87064e46dd92806239d24f613872218ba4363c1f619ce9852864a08fec16a40a90a3a268173e41f7df8d2a1d9e2a06447e8a628aeb0bfd34a457
d7072740a938f0e76796778f313a81b5bcf1ee82bdd45fd86d0ad17b3ef49a3d2ed4e03f3e56f24bd590bb0cecf6b8470d6515d4188937861ce34e0a15478355
$CDNENCFINISH
.ENDS D_D1
*$
.SUBCKT BUF_BASIC_GEN A  Y PARAMS: VDD=1 VSS=0 VTHRESH=0.5 
$CDNENCSTART
eee8c5c7a2bc4b01f045f303678664e7916da0bae22e8cb0bba041dd67c69ce448ea70148a9ac1670c8926c1ac5057c8ccfcd77bf87ca9dcb6c53803b553c573
f305b7cfa07651615a9037c8c42a602b94aebb18efc1b73c4a0534bc16c6b751d67091752c09698a1541fe9d381cc675040397452ddd0415b6c53803b553c573
7e21bb79cbca9f8ce0c67063107b52eb2c4b5f36edab5d85e3c10054dbadb5a63f130879f517c8091f157ff61749526df6b7d1886356ed0a291f3b9e2bab1633
bd9831b9881f0b92e8f02e93fcf213a80837a69cda7d573ded53384b3b259c9681085fd54773d1f62672d6ba79197f0b9a34a16e698c2fe872fff3878af0d013
02f2959404528fbd9ad2dc2e0af5de0ea9c096ac83c8821c4603fe882b6b113e9445dff69f0fd91970a5df11eb6a62dfaac9a388869992d77d453769acaecd43
$CDNENCFINISH
.ENDS BUF_BASIC_GEN
*$
